8
Lattice="4.810662746429443 0.0 2.003615617752075 2.0573911375230405 4.4635489819590255 1.6285755634307861 0.0 0.0 6.223104953765869" Properties=species:S:1:pos:R:3 pbc="T T T"
Si       3.19007697       0.64344807       2.15220843
O        6.29417322       4.25980285       4.64711970
Si       2.52538380       3.42031925       3.52259767
O        6.28716089       4.28023109       7.76082322
O        3.88651095       4.26880406       3.65002186
O        2.86109621       2.03830726       2.83004283
O        1.84533000       3.12136774       5.01444792
O        3.87107245       0.94328279       6.87403968
